[General]
network = networks.Myned{}
result-dir = ../results/{}
sim-time-limit = 50000s
Myned{}.routingTableString = "{}"
{}
**.destAddresses = "{}"
**.app.packetLength = 4096 bytes
**.app.sendIaTime = exponential(500ms)
**.result-recording-modes = all, -vector
